Version 4
SHEET 1 1008 680
WIRE 128 160 -32 160
WIRE 336 160 256 160
WIRE 368 160 336 160
WIRE 496 160 448 160
WIRE 640 160 496 160
WIRE 128 208 80 208
WIRE 272 208 256 208
WIRE -32 224 -32 160
WIRE 496 224 496 160
WIRE 640 224 640 160
WIRE 192 240 192 224
WIRE 272 320 272 208
WIRE 80 352 80 208
WIRE 336 352 336 160
WIRE 336 352 80 352
WIRE -32 368 -32 304
WIRE 496 368 496 288
WIRE 640 368 640 304
FLAG 496 368 0
FLAG 640 368 0
FLAG -32 368 0
FLAG 192 320 0
FLAG 272 320 0
FLAG -32 160 in
FLAG 640 160 out
FLAG 192 240 dutyc
SYMBOL ccm1 192 192 R0
SYMATTR InstName U1
SYMBOL ind 352 176 R270
WINDOW 0 32 56 VTop 2
WINDOW 3 5 56 VBottom 2
SYMATTR InstName L1
SYMATTR Value {L}
SYMBOL cap 480 224 R0
SYMATTR InstName C1
SYMATTR Value {C}
SYMBOL res 624 208 R0
SYMATTR InstName Rload
SYMATTR Value {R}
SYMBOL voltage -32 208 R0
SYMATTR InstName Vg
SYMATTR Value {Vin}
SYMBOL voltage 192 224 R0
WINDOW 0 -103 51 Left 2
WINDOW 3 -155 145 Left 2
WINDOW 123 0 0 Left 0
WINDOW 39 0 0 Left 0
SYMATTR InstName DutyC
SYMATTR Value PULSE({Di} {Df} 0 100n 100n 2m)
TEXT -128 472 Left 2 !.param Vin = 10
TEXT -128 520 Left 2 !.param L = 235u
TEXT 184 504 Left 2 !.tran 0 4m 0 10n
TEXT 184 472 Left 2 !.lib average.lib
TEXT -128 544 Left 2 !.param C = 0.5u
TEXT -128 496 Left 2 !.param R = 1
TEXT -120 448 Left 2 ;Converter parameters
TEXT 184 448 Left 2 ;Simulation parameters
TEXT -128 592 Left 2 !.param Di = 0.4
TEXT -128 616 Left 2 !.param Df = 0.6
TEXT -112 24 Left 2 ;Ideal average model of open-loop Buck converter
TEXT -112 88 Left 1 ;Reference: - R.W.Erickson, D. Maksimovic. "Fundamentals of Power Electronics". Springer, 2001.
TEXT -112 64 Left 1 ;Copyright (C) 2020 Jaime M. Villegas I. <jaime7592@gmail.com>
